26
/Users/ghutchis/Devel/openbabel/src/ntcdi.xyz	      0.0000000
  N        3.55488        0.10653       -0.00000
  C        2.87192        1.26846       -0.00000
  C        1.36108        1.24721        0.00000
  C        0.69697        0.02115       -0.00000
  C        1.43362       -1.16276        0.00000
  C        2.94290       -1.09410       -0.00000
  C        0.62507        2.43392       -0.00000
  C       -0.77075        2.39200        0.00000
  C       -1.43387        1.16314       -0.00000
  C       -0.69718       -0.02079        0.00000
  C        0.77078       -2.39163       -0.00000
  C       -0.62496       -2.43367       -0.00000
  C       -1.36102       -1.24701       -0.00000
  C       -2.94321        1.09394       -0.00000
  N       -3.55502       -0.10688        0.00000
  C       -2.87178       -1.26861        0.00000
  O        3.44310        2.34676        0.00000
  O        3.57745       -2.13637        0.00000
  O       -3.44258       -2.34712        0.00000
  O       -3.57809        2.13600       -0.00000
  H        4.55480        0.13574        0.00000
  H        1.13659        3.39010       -0.00000
  H       -1.33877        3.31580        0.00000
  H        1.33914       -3.31517        0.00000
  H       -1.13619       -3.39000        0.00000
  H       -4.55487       -0.13665       -0.00000
