0
 (formerly HMX coordinates)
   N  0.5680149949  2.6293711200  0.3736776847
   C -0.6942751232  2.8705031073  1.0445507885
   N -1.7727589782  1.9871898655  0.6193546122
   C -1.7753610507  0.5758381283  0.9829852521
   N -0.7686377016 -0.2141474275  0.3017990192
   C  0.5471655431 -0.5099179346  0.8335910717
   N  1.5872193099  0.4135557216  0.3973826297
   C  1.6276589083  1.7853676267  0.8888065127
   N  0.7381267018  3.1768979200 -0.9093963072
   N  2.7980712477 -0.1447133899 -0.0780004587
   N -1.0509827475 -0.6385148606 -1.0078022155
   N -3.0166173612  2.5818173406  0.2989156708
   O -0.1874526445  3.8560459604 -1.3342654849
   O  1.7984454108  2.9274206178 -1.4679403488
   O  3.7351175454  0.6256837894 -0.2394361072
   O  2.8051031691 -1.3502696381 -0.2877089067
   O -0.1689562567 -1.2724500643 -1.5724155800
   O -2.1536504460 -0.3400471272 -1.4475363780
   O -3.9667134006  1.8259041193  0.1461329863
   O -3.0364422016  3.8014821835  0.2019531460
   H  2.5926214029  2.1968423404  0.6040800504
   H  1.5260977918  1.7963201594  1.9807757865
   H -0.5021178750  2.7386376784  2.1162145458
   H -1.0219335717  3.8887489905  0.8511352897
   H -1.5781151260  0.4647032481  2.0560705202
   H -2.7633740401  0.1883945774  0.7479214905
   H  0.4507923100 -0.4781294376  1.9256045749
   H  0.8527197221 -1.5046000931  0.5192138085
