33
479                                                                             	      0.0000000
  C       -0.01870        1.52580        0.01040
  C        0.00210       -0.00410        0.00200
  C        1.39510        2.04740       -0.00030
  C        0.72190       -0.51740       -1.22770
 As        0.80000       -0.51430        1.12850
  C       -1.40170       -0.54940        0.05710
  C        2.03200        2.29300       -1.20210
  C        2.05310        2.28560        1.19210
  O        0.41020       -0.33430       -2.38490
  N        1.79200       -1.22640       -0.76880
  C        1.83290       -1.22180        0.59510
  C       -1.62360       -1.91780        0.05950
  C       -2.48420        0.30850        0.11180
  C        3.32910        2.77150       -1.21190
  C        3.34980        2.76400        1.18230
  O        2.68780       -1.78140        1.25330
  C       -2.93200       -2.37420        0.11170
  N       -3.71520       -0.16120        0.16110
  C        3.98870        3.00470       -0.01990
  C       -3.96390       -1.45640        0.15920
  H       -0.54590        1.88680       -0.87260
  H       -0.52890        1.87730        0.90720
  H        0.62350       -0.37290        2.07170
  H        1.51660        2.11080       -2.13350
  H        1.55380        2.09820        2.13120
  H        2.43830       -1.67470       -1.33640
  H       -0.79710       -2.61190        0.02130
  H       -2.31960        1.37590        0.11450
  H        3.82700        2.96280       -2.15100
  H        3.86360        2.95040        2.11380
  H       -3.14190       -3.43360        0.11470
  H        5.00210        3.37810       -0.02760
  H       -4.98570       -1.80370        0.19990
